[TITLE]
Northwest System

[JUNCTIONS]
;ID              	Elev        	Demand      	Pattern         
 1            	55.000000   	0           	                	;
 2            	55.000000   	0           	                	;
 3            	59.500   	0           	                	;New Junction
 4            	62.980000   	0           	                	;
 5            	62.500000   	0.928576    	1               	;
 6            	60.000000   	0.025035    	1               	;
 7            	62.790000   	0.161266    	1               	;
 8            	60.000000   	0.403781    	1               	;
 9            	60.000000   	5.158903    	1               	;
 10            	59.410000   	1.598087    	1               	;
 11            	60.000000   	0.646992    	1               	;
 12            	60.490000   	0           	                	;
 13            	60.000000   	0           	                	;
 14            	60.000000   	0           	                	;
 15            	60.000000   	0           	                	;
 16            	60.000000   	0           	                	;
 17            	60.000000   	0           	                	;
 18            	60.000000   	0           	                	;
 19            	60.000000   	0           	                	;
 20            	60.000000   	0           	                	;
 21            	60.000000   	0           	                	;
 22            	60.000000   	0           	                	;
 23            	60.000000   	0           	                	;
 24            	60.000000   	0           	                	;
 25            	60.000000   	0.121453    	1               	;
 26            	60.000000   	0.525764    	1               	;
 27            	60.000000   	0           	                	;
 28            	60.000000   	0           	                	;
 29            	60.000000   	0           	                	;
 30            	62.500000   	2.731024    	1               	;
 31            	62.500000   	0.566923    	1               	;
 32            	60.000000   	0.189415    	1               	;
 33            	56.110000   	0           	                	;
 34            	58.610000   	0           	                	;
 35            	55.000000   	0.044538    	1               	;
 36            	55.000000   	0           	                	;
 37            	55.000000   	0.189537    	1               	;
 38            	58.200000   	0.103286    	1               	;
 39            	56.460000   	0           	                	;
 40            	60.940000   	0           	                	;
 41            	59.050000   	0           	                	;
 42            	58.310000   	0           	                	;
 43            	58.120000   	0           	                	;
 44            	57.950000   	1.332372    	1               	;
 45            	60.000000   	0.764170    	1               	;
 46            	60.000000   	0.726074    	1               	;
 47            	60.000000   	0.346515    	1               	;
 48            	60.000000   	0.000096    	1               	;
 49            	60.000000   	1.094068    	1               	;
 50            	60.000000   	0           	                	;
 51            	60.000000   	0.032573    	1               	;
 52            	60.000000   	0.321455    	1               	;
 53            	60.000000   	0           	                	;
 54            	60.000000   	0.794058    	1               	;
 55            	60.000000   	0.351220    	1               	;
 56            	60.000000   	0           	                	;
 57            	60.000000   	0.004745    	1               	;
 58            	60.000000   	0.002339    	1               	;
 59            	60.000000   	1.569935    	1               	;
 60            	60.000000   	0.232246    	1               	;
 61            	60.000000   	0.387059    	1               	;
 62            	60.000000   	0.755661    	1               	;
 63            	56.220000   	0.544847    	1               	;
 64            	52.500000   	0           	                	;
 65            	52.500000   	0.478508    	1               	;
 66            	59.210000   	0           	                	;
 67            	59.620000   	0           	                	;
 68            	59.140000   	0           	                	;
 69            	59.790000   	0           	                	;
 70            	55.890000   	0           	                	;
 71            	55.640000   	0           	                	;
 72            	62.760000   	0           	                	;
 73            	59.490000   	0           	                	;
 74            	60.000000   	1.058854    	1               	;
 75            	60.000000   	4.313584    	1               	;
 76            	60.000000   	0.540311    	1               	;
 77            	60.000000   	0.024779    	1               	;
 78            	55.060000   	0           	                	;
 79            	58.240000   	0           	                	;New Junction
 80            	55.000000   	0           	                	;New Junction
 81            	55.000000   	0           	                	;New Junction
 82            	54.300000   	0           	                	;New Junction

[RESERVOIRS]
;ID              	Head        	Pattern         
 83            	1.0         	PATN1           	;Lake Park

[TANKS]
;ID              	Elevation   	InitLevel   	MinLevel    	MaxLevel    	Diameter    	MinVol      	VolCurve        	Overflow

[PIPES]
;ID              	Node1           	Node2           	Length      	Diameter    	Roughness   	MinorLoss   	Status
 10101           	3            	4            	164.915872  	12.000000   	140.000000  	0.000000    	Open  	;
 10103           	4            	5            	238.335863  	12.000000   	140.000000  	0.000000    	Open  	;
 10105           	5            	6            	318.3971  	12.000000   	140.000000  	0.000000    	Open  	;
 10107           	4            	7            	348.223187  	8.000000    	140.000000  	0.000000    	Open  	;
 10109           	7            	8            	127.527906  	8.000000    	140.000000  	0.000000    	Open  	;
 10111           	8            	9            	273.564124  	8.000000    	140.000000  	0.000000    	Open  	;
 10113           	9            	10            	421.828446  	8.000000    	140.000000  	0.000000    	Open  	;
 10115           	10            	11            	402.752869  	8.000000    	140.000000  	0.000000    	Open  	;
 10117           	11            	12            	326.610104  	8.000000    	140.000000  	0.000000    	Open  	;
 10119           	6            	13            	232.349456  	10.000000   	140.000000  	0.000000    	Open  	;
 10121           	13            	14            	503.628914  	10.000000   	140.000000  	0.000000    	Open  	;
 10123           	14            	15            	500.506789  	10.000000   	140.000000  	0.000000    	Open  	;
 10125           	15            	16            	506.718970  	10.000000   	140.000000  	0.000000    	Open  	;
 10127           	16            	17            	549.171068  	10.000000   	140.000000  	0.000000    	Open  	;
 10129           	17            	18            	237.603955  	10.000000   	140.000000  	0.000000    	Open  	;
 10131           	18            	19            	161.664030  	10.000000   	140.000000  	0.000000    	Open  	;
 10133           	19            	20            	674.050463  	10.000000   	140.000000  	0.000000    	Open  	;
 10135           	20            	21            	500.224328  	10.000000   	140.000000  	0.000000    	Open  	;
 10137           	21            	22            	207.133196  	10.000000   	140.000000  	0.000000    	Open  	;
 10139           	22            	23            	247.493008  	10.000000   	140.000000  	0.000000    	Open  	;
 10141           	23            	24            	165.524572  	10.000000   	140.000000  	0.000000    	Open  	;
 10143           	24            	25            	38.446827   	10.000000   	140.000000  	0.000000    	Open  	;
 10145           	25            	26            	98.685880   	10.000000   	140.000000  	0.000000    	Open  	;
 10147           	19            	27            	858.631600  	8.000000    	140.000000  	0.000000    	Open  	;
 10149           	27            	28            	317.491373  	8.000000    	140.000000  	0.000000    	Open  	;
 10151           	28            	29            	389.968276  	8.000000    	140.000000  	0.000000    	Open  	;
 10153           	29            	30            	221.546095  	8.000000    	140.000000  	0.000000    	Open  	;
 10155           	30            	31            	469.390193  	8.000000    	140.000000  	0.000000    	Open  	;
 10157           	31            	32            	450.178398  	8.000000    	140.000000  	0.000000    	Open  	;
 10159           	32            	33            	839.018540  	8.000000    	140.000000  	0.000000    	Open  	;
 10161           	33            	34            	464.754993  	8.000000    	140.000000  	0.000000    	Open  	;
 10163           	34            	35            	451.437476  	8.000000    	140.000000  	0.000000    	Open  	;
 10165           	35            	36            	20.365952   	8.000000    	140.000000  	0.000000    	Open  	;
 10167           	36            	37            	32.753687   	8.000000    	140.000000  	0.000000    	Open  	;
 10169           	35            	38            	561.969247  	8.000000    	140.000000  	0.000000    	Open  	;
 10171           	38            	39            	344.704417  	8.000000    	140.000000  	0.000000    	Open  	;
 10173           	39            	40            	303.822798  	8.000000    	140.000000  	0.000000    	Open  	;
 10175           	40            	41            	231.817258  	8.000000    	140.000000  	0.000000    	Open  	;
 10177           	41            	42            	101.216296  	8.000000    	140.000000  	0.000000    	Open  	;
 10179           	42            	43            	455.985251  	8.000000    	140.000000  	0.000000    	Open  	;
 10181           	43            	44            	155.132287  	8.000000    	140.000000  	0.000000    	Open  	;
 10183           	44            	45            	306.707440  	8.000000    	140.000000  	0.000000    	Open  	;
 10185           	45            	46            	194.565223  	8.000000    	140.000000  	0.000000    	Open  	;
 10187           	46            	47            	248.691267  	8.000000    	140.000000  	0.000000    	Open  	;
 10189           	47            	48            	410.283945  	8.000000    	140.000000  	0.000000    	Open  	;
 10191           	48            	25            	296.548979  	8.000000    	140.000000  	0.000000    	Open  	;
 10193           	26            	49            	263.079944  	8.000000    	140.000000  	0.000000    	Open  	;
 10195           	26            	50            	105.297432  	8.000000    	140.000000  	0.000000    	Open  	;
 10197           	50            	51            	260.479426  	8.000000    	140.000000  	0.000000    	Open  	;
 10199           	51            	52            	485.578505  	8.000000    	140.000000  	0.000000    	Open  	;
 10201           	52            	53            	109.748843  	8.000000    	140.000000  	0.000000    	Open  	;
 10203           	53            	54            	226.642596  	8.000000    	140.000000  	0.000000    	Open  	;
 10205           	54            	55            	378.245995  	8.000000    	140.000000  	0.000000    	Open  	;
 10207           	55            	29            	324.721046  	8.000000    	140.000000  	0.000000    	Open  	;
 10209           	53            	56            	295.599610  	8.000000    	140.000000  	0.000000    	Open  	;
 10211           	56            	57            	423.071776  	8.000000    	140.000000  	0.000000    	Open  	;
 10213           	57            	58            	398.485927  	8.000000    	140.000000  	0.000000    	Open  	;
 10215           	58            	59            	59.752755   	8.000000    	140.000000  	0.000000    	Open  	;
 10219           	60            	61            	464.207179  	8.000000    	140.000000  	0.000000    	Open  	;
 10221           	61            	62            	31.989202   	8.000000    	140.000000  	0.000000    	Open  	;
 10223           	44            	63            	574.509795  	8.000000    	140.000000  	0.000000    	Open  	;
 10225           	63            	64            	517.061451  	8.000000    	140.000000  	0.000000    	Open  	;
 10227           	64            	65            	29.028500   	8.000000    	140.000000  	0.000000    	Open  	;
 10229           	41            	66            	264.916435  	8.000000    	140.000000  	0.000000    	Open  	;
 10231           	66            	67            	120.072060  	8.000000    	140.000000  	0.000000    	Open  	;
 10233           	67            	68            	215.304189  	8.000000    	140.000000  	0.000000    	Open  	;
 10235           	68            	69            	256.384882  	8.000000    	140.000000  	0.000000    	Open  	;
 10237           	69            	70            	477.615034  	8.000000    	140.000000  	0.000000    	Open  	;
 10239           	70            	71            	32.119991   	8.000000    	140.000000  	0.000000    	Open  	;
 10241           	66            	72            	232.918276  	8.000000    	140.000000  	0.000000    	Open  	;
 10243           	72            	79            	586.384679  	8.000000    	140.000000  	0.000000    	Open  	;
 10245           	73            	68            	232.494676  	8.000000    	140.000000  	0.000000    	Open  	;
 10247           	49            	74            	418.242585  	4.000000    	140.000000  	0.000000    	Open  	;
 10249           	59            	75            	308.039785  	4.000000    	140.000000  	0.000000    	Open  	;
 10251           	62            	76            	522.172588  	4.000000    	140.000000  	0.000000    	Open  	;
 10253           	65            	77            	483.772876  	4.000000    	140.000000  	0.000000    	Open  	;
 10255           	71            	78            	457.931718  	4.000000    	140.000000  	0.000000    	Open  	;
 10257           	60            	46            	230.740000  	8.000000    	140.000000  	0.000000    	Open  	;
 10305           	79            	73            	472.290188  	8.000000    	140.000000  	0.000000    	Open  	;
 11059           	80            	1            	91.414808   	42.000000   	140.000000  	0.000000    	Open  	;
 11067           	81            	3            	2514.197784 	30.000000   	140.000000  	0.000000    	Open  	;
 5359            	1            	81            	251.454422  	24.000000   	140.000000  	0.000000    	Open  	;
 6210            	2            	1            	376.366490  	30.000000   	140.000000  	0.000000    	Open  	;
 P153            	82            	80            	25.155196   	42.000000   	140.000000  	0.000000    	Open  	;Split Pipe
 P387            	82            	83            	740.901075  	42.000000   	140.000000  	0.000000    	Open  	;New Pipe

[PUMPS]
;ID              	Node1           	Node2           	Parameters

[VALVES]
;ID              	Node1           	Node2           	Diameter    	Type	Setting     	MinorLoss   

[TAGS]

[DEMANDS]
;Junction        	Demand      	Pattern         	Category

[STATUS]
;ID              	Status/Setting

[PATTERNS]
;ID              	Multipliers
;Average Demands: 9/10/09 to 9/19/09
 1               	0.853754143378505	0.904367581194430	0.927727629417164	0.728442870715	0.753639650995358	0.877670383225591
 1               	1.223065381947450	1.205267249968220	1.117945164945140	1.033404038043820	1.016162097688940	0.958874360380810
 1               	0.728442870715	0.8615640839554	0.779224465715496	0.753083459371007	0.826500753785315	0.9438571313338
 1               	1.091247966976300	1.260330220778950	1.268673095144220	1.131849955553910	0.983346791852246	0.793129256324266
 1               	0.933289545660672	0.993358241090561	1.067331727129220	0.998920157334069	0.840961736018437	0.912154263935341
 1               	1.205823441592570	1.176345285501980	1.006150648450630	1.012268756318490	1.003369690328880	0.925502862919761
 1               	0.887681832463905	0.5739892109030	0.8162071044404	0.775331124345040	0.819270262668755	0.879895149722994
 1               	0.910485689062289	0.915491413681446	0.899361856575273	0.842074119267138	0.744740585005745	0.629608918765126
 1               	0.566759265213483	0.500016270291385	0.4989038572684	0.469425730952090	0.4354980413890	0.389890328669923
 1               	0.468313347703389	0.609560288496	0.842074119267138	1.020055439059400	1.110158482204230	1.112383248701640
 1               	1.035628804541220	0.981678216979193	0.927171437792813	0.918828563427551	0.921609521549305	0.930508587538918
 1               	0.927727629417164	0.907704730940535	0.853754143378505	0.804809280435633	0.669654715718385	0.246881964782
 1               	0.520595360392366	0.474987647195598	0.481661946687808	0.446621874353707	0.425486592628376	0.398233203035186
 1               	0.436610425115392	0.626271769019021	0.941632420025935	1.101259416214620	1.175232902253280	1.155210003776650
 1               	1.089579392103250	0.983346791852246	0.935514312158076	0.911041880686639	0.958874360380810	0.976116300735685
 1               	1.055651703017850	1.149648087533140	1.1463109377570	0.922165713173656	0.728054836275220	0.579551672573552
 1               	0.695795722062873	0.701913829930732	0.697464296935925	0.6991326408978	0.602911720796287	0.7625363984971
 1               	1.082905092611040	1.051202170023050	0.969442001243475	0.855978909875909	0.883788491093449	0.797578789319073
 1               	0.809815005054791	0.777555890842443	0.745852968254447	0.676885206834945	0.763651100233673	0.865990359114223
 1               	0.9393941598351	1.075118409870130	1.084017475859740	0.947750527893794	0.779224465715496	0.611254595161549
 1               	0.714706237290801	0.725830069777817	0.775331124345040	0.721380536783011	0.619597469526811	0.7633824852830
 1               	1.077343176367530	1.023392588805500	0.904923772818781	0.893243748707413	0.923834288046708	0.7120850230784
 1               	0.788679723329460	0.840961736018436	0.671879482215788	0.655193733485263	0.692458572316768	0.837624586272332
 1               	0.935514312158076	1.0378535710320	1.087354625605850	0.951087677639899	0.763651100233673	0.580107864197903
 1               	0.606805062166742	0.671879482215788	0.705250979676837	0.620153661151162	0.559528774096923	0.773106357847637
 1               	1.064550769007470	1.033404038043820	0.946638144645092	0.906592347691833	0.832340765840999	0.758089183990165
 1               	0.703582404803785	0.752527267746656	0.725273878153466	0.745296776630096	0.761426333736270	0.860984634495066
 1               	0.978897258857440	1.074562218245780	1.051758361647400	0.938295270279830	0.761426333736270	0.562309732218677
 1               	0.630165110389477	0.635727026632985	0.665761374347929	0.638507984754739	0.573433564705693	0.719711961909958
 1               	1.079567942864940	1.045084062155190	0.897693281702220	0.866546550738574	0.822607412414860	0.7836739960302
 1               	0.740847243635289	0.7836739960302	0.724161494904765	0.695795722062873	0.746409159878798	0.835956011399279
 1               	0.926059054544112	1.150760470781840	1.074562218245780	0.898249473326571	0.780336848964197	0.589563121811867
 1               	0.706919554549889	0.746965351503148	0.774774932720689	0.717487195412555	0.566203073589132	0.720268153534309
 1               	1.071781260124030	1.049533595149990	0.932177162411971	0.8921313654561	0.472251246364	0.818157879420053
 1               	0.777555890842443	0.759201567238866	0.718599578661257	0.763094908609322	0.804253088811283	0.909373305813587
 1               	0.952200060885	0.9777848756074	0.976672492360036	0.902142814697027	0.8064778553048	0.698020488560276
 1               	0.581220247446605	0.531163001255031	0.479437180190405	0.497791503793982	0.464976197957284	0.443840916231953
 1               	0.500016270291385	0.738066285513535	1.011156373069790	1.148535704284440	1.171339560882820	1.161884303268860
 1               	1.100703224590270	1.044527870530840	1.010043989821090	0.982234408603544	0.955537210634705	0.990021091344456
 1               	0.998920157334069	0.987796324847053	0.8176228401584	0.845967460637594	0.747521543127499	0.622934619272916
;Lake Park Heads: 9/10/09 - 9/19/09
 PATN1           	183.55596   	183.44016   	182.81484   	184.36656   	183.99600   	184.08864   
 PATN1           	189.02172   	191.08296   	189.80916   	182.60640   	186.79836   	187.56264   
 PATN1           	190.57344   	188.41956   	189.80916   	182.49060   	181.17048   	178.83132   
 PATN1           	177.69648   	175.70472   	177.81228   	178.02072   	180.61464   	184.50552   
 PATN1           	176.46900   	179.43348   	181.77264   	184.06548   	184.41288   	182.30532   
 PATN1           	187.33104   	188.79012   	185.91828   	183.74124   	183.04644   	179.73456   
 PATN1           	183.64860   	184.41288   	184.57500   	183.85704   	183.64860   	186.03408   
 PATN1           	186.08040   	186.33516   	186.75204   	186.444   	185.84880   	186.21936   
 PATN1           	183.55596   	184.22760   	183.92652   	184.25076   	184.25076   	182.46744   
 PATN1           	181.05468   	174.01404   	183.429   	181.91160   	188.60484   	188.76696   
 PATN1           	188.99856   	188.74380   	188.48904   	188.58168   	188.58168   	188.58168   
 PATN1           	188.69748   	188.76696   	188.67432   	187.44684   	188.79012   	188.69748   
 PATN1           	187.84056   	184.08864   	183.32436   	184.18128   	184.32024   	183.97284   
 PATN1           	183.429   	182.86116   	180.01248   	180.01248   	181.51788   	181.68000   
 PATN1           	181.72632   	180.19776   	178.76184   	181.23996   	180.03564   	179.24820   
 PATN1           	182.65272   	186.52044   	188.97540   	187.79424   	186.12672   	185.29296   
 PATN1           	184.01916   	183.429   	183.46332   	184.32024   	184.15812   	183.27804   
 PATN1           	184.57500   	184.04232   	183.39384   	185.33928   	186.05724   	186.24252   
 PATN1           	186.35832   	186.28884   	186.35832   	182.69904   	182.86116   	185.10768   
 PATN1           	181.00836   	180.31356   	183.37068   	183.64860   	185.52456   	183.97284   
 PATN1           	183.04644   	180.77676   	179.82720   	179.87352   	181.00836   	182.81484   
 PATN1           	182.23584   	184.04232   	182.05056   	185.17716   	184.76028   	183.11592   
 PATN1           	182.37480   	182.67588   	184.27392   	183.20856   	186.01092   	185.94144   
 PATN1           	183.44016   	182.05056   	185.73300   	183.69492   	184.94556   	181.05468   
 PATN1           	179.82720   	181.61052   	181.54104   	181.98108   	181.72632   	180.33672   
 PATN1           	180.03564   	181.23996   	182.14320   	183.46332   	185.84880   	190.11024   
 PATN1           	186.444   	184.13496   	184.01916   	183.88020   	183.81072   	183.53280   
 PATN1           	182.12004   	182.83800   	182.69904   	183.94968   	184.32024   	184.76028   
 PATN1           	183.429   	183.83388   	183.94968   	184.27392   	184.18128   	182.14320   
 PATN1           	184.34340   	186.12672   	188.65116   	186.40464   	183.44016   	183.92652   
 PATN1           	185.82564   	187.849   	186.58992   	183.67176   	182.93064   	181.03152   
 PATN1           	181.00836   	177.07116   	182.42112   	180.89256   	182.56008   	182.72220   
 PATN1           	183.44016   	184.18128   	183.69492   	184.22760   	184.18128   	182.86116   
 PATN1           	181.14732   	183.34752   	180.35988   	186.47412   	186.42780   	186.28884   
 PATN1           	186.28884   	186.42780   	186.19620   	182.02740   	180.89256   	180.96204   
 PATN1           	179.43348   	181.44840   	181.91160   	182.81484   	186.45096   	185.24664   
 PATN1           	183.97284   	184.04232   	183.88020   	185.45508   	186.42780   	186.28884   
 PATN1           	185.57088   	181.95792   	179.45664   	182.25900   	183.85704   	186.56676   
 PATN1           	186.35832   	186.40464   	183.90336   	183.90336   	178.76184   	181.84212   
 PATN1           	186.17304   	181.81896   	183.37068   	188.48904   	188.92908   	188.67432   
;Lake Park Heads: 9/10/09 - 9/19/09
 PATN2           	177.48800   	177.48800   	177.48800   	177.48800   	177.48800   	175.17200   
 PATN2           	177.48800   	182.12000   	182.12000   	177.48800   	182.12000   	182.12000   
 PATN2           	182.12000   	179.80400   	182.12000   	177.48800   	177.48800   	172.85600   
 PATN2           	175.17200   	177.48800   	179.80400   	177.48800   	175.17200   	177.48800   
 PATN2           	170.54000   	175.17200   	179.80400   	179.80400   	179.80400   	175.17200   
 PATN2           	175.17200   	179.80400   	172.85600   	172.85600   	172.85600   	179.80400   
 PATN2           	177.48800   	177.48800   	179.80400   	179.80400   	179.80400   	179.80400   
 PATN2           	179.80400   	179.80400   	179.80400   	182.12000   	179.80400   	177.48800   
 PATN2           	175.17200   	172.85600   	172.85600   	175.17200   	175.17200   	179.80400   
 PATN2           	179.80400   	170.54000   	175.17200   	172.85600   	175.17200   	175.17200   
 PATN2           	177.48800   	179.80400   	179.80400   	179.80400   	179.80400   	179.80400   
 PATN2           	179.80400   	179.80400   	179.80400   	179.80400   	179.80400   	179.80400   
 PATN2           	179.80400   	177.48800   	175.17200   	175.17200   	175.17200   	175.17200   
 PATN2           	175.17200   	172.85600   	172.85600   	170.54000   	172.85600   	170.54000   
 PATN2           	170.54000   	170.54000   	170.54000   	172.85600   	170.54000   	170.54000   
 PATN2           	170.54000   	172.85600   	172.85600   	175.17200   	175.17200   	179.80400   
 PATN2           	179.80400   	179.80400   	175.17200   	177.48800   	177.48800   	175.17200   
 PATN2           	172.85600   	172.85600   	175.17200   	177.48800   	177.48800   	177.48800   
 PATN2           	177.48800   	177.48800   	177.48800   	175.17200   	177.48800   	177.48800   
 PATN2           	170.54000   	168.22400   	170.54000   	175.17200   	177.48800   	177.48800   
 PATN2           	175.17200   	172.85600   	172.85600   	177.48800   	177.48800   	177.48800   
 PATN2           	172.85600   	172.85600   	172.85600   	177.48800   	175.17200   	175.17200   
 PATN2           	177.48800   	175.17200   	177.48800   	177.48800   	177.48800   	177.48800   
 PATN2           	175.17200   	170.54000   	172.85600   	175.17200   	177.48800   	177.48800   
 PATN2           	177.48800   	179.80400   	177.48800   	179.80400   	179.80400   	175.17200   
 PATN2           	168.22400   	175.17200   	177.48800   	175.17200   	175.17200   	175.17200   
 PATN2           	177.48800   	177.48800   	177.48800   	177.48800   	177.48800   	177.48800   
 PATN2           	175.17200   	177.48800   	177.48800   	177.48800   	175.17200   	177.48800   
 PATN2           	177.48800   	177.48800   	177.48800   	177.48800   	179.80400   	175.17200   
 PATN2           	172.85600   	177.48800   	182.12000   	179.80400   	179.80400   	179.80400   
 PATN2           	182.12000   	182.12000   	182.12000   	177.48800   	177.48800   	175.17200   
 PATN2           	175.17200   	177.48800   	179.80400   	172.85600   	177.48800   	177.48800   
 PATN2           	177.48800   	177.48800   	177.48800   	179.80400   	177.48800   	175.17200   
 PATN2           	177.48800   	177.48800   	172.85600   	179.80400   	179.80400   	179.80400   
 PATN2           	179.80400   	179.80400   	179.80400   	177.48800   	175.17200   	172.85600   
 PATN2           	170.54000   	172.85600   	172.85600   	175.17200   	177.48800   	177.48800   
 PATN2           	177.48800   	177.48800   	177.48800   	175.17200   	177.48800   	177.48800   
 PATN2           	175.17200   	172.85600   	172.85600   	179.80400   	175.17200   	172.85600   
 PATN2           	172.85600   	175.17200   	177.48800   	177.48800   	170.54000   	177.48800   
 PATN2           	179.80400   	172.85600   	175.17200   	179.80400   	179.80400   	179.80400   
;Lake Park Heads: 9/10/09 - 9/19/09
 PATN3           	188.196397  	187.571077  	186.714157  	188.4537  	188.937517  	188.451157  
 PATN3           	191.091397  	193.592677  	193.083157  	186.135157  	190.466077  	191.253517  
 PATN3           	195.005437  	192.573637  	194.495917  	187.987957  	186.482557  	183.355957  
 PATN3           	181.618957  	179.696677  	182.035837  	182.684317  	184.977157  	189.493357  
 PATN3           	180.924157  	183.633877  	186.019357  	188.613277  	189.632317  	186.528877  
 PATN3           	189.145957  	191.716717  	188.381677  	186.922597  	186.227797  	184.861357  
 PATN3           	188.126917  	189.006997  	189.794437  	189.447037  	188.705917  	190.674517  
 PATN3           	190.466077  	190.674517  	191.322997  	191.878837  	191.230357  	191.415637  
 PATN3           	189.076477  	189.516517  	189.192277  	189.840757  	190.072357  	188.960677  
 PATN3           	187.408957  	179.650357  	187.733197  	185.069797  	190.790317  	190.813477  
 PATN3           	192.040957  	192.388357  	192.388357  	192.457837  	192.480997  	192.388357  
 PATN3           	192.735757  	192.712597  	193.152637  	192.226237  	193.731637  	193.685317  
 PATN3           	193.361077  	190.095517  	188.821717  	189.771277  	190.095517  	189.933397  
 PATN3           	189.006997  	187.617397  	184.073917  	182.962237  	184.305517  	184.282357  
 PATN3           	184.699237  	183.726517  	182.846437  	185.301397  	183.3277  	183.054877  
 PATN3           	185.556157  	188.404837  	190.790317  	191.137717  	190.558717  	191.137717  
 PATN3           	189.609157  	188.914357  	188.011117  	189.400717  	189.678637  	187.941637  
 PATN3           	187.131037  	187.107877  	187.154197  	189.377557  	190.257637  	190.489237  